<?xml version="1.0" encoding="UTF-8"?>
<!-- generated on 2024-05-23 12:20:49.138210 by randomTrips.py UNKNOWN
  options: <doubleminus>period 3.0 -n handmade.net.xml -e 1000 -o handmade.trips.xml
-->
<routes xmlns:xsi="http://www.w3.org/2001/XMLSchema-instance" xsi:noNamespaceSchemaLocation="http://sumo.dlr.de/xsd/routes_file.xsd">
    <trip id="0" depart="0.00" from="topLeft_to_top" to="bottom_to_center"/>
    <trip id="1" depart="3.00" from="Left_to_topLeft" to="bottomright_to_right"/>
    <trip id="2" depart="6.00" from="topLeft_to_left" to="right_to_topright"/>
    <trip id="3" depart="9.00" from="right_to_topright" to="right_to_topright"/>
    <trip id="4" depart="12.00" from="right_to_topright" to="right_to_topright"/>
    <trip id="5" depart="15.00" from="bottomleft_to_bottom" to="bottom_to_bottomLeft"/>
    <trip id="6" depart="18.00" from="right_to_bottomright" to="bottomright_to_right"/>
    <trip id="7" depart="21.00" from="top_to_topLeft" to="center_to_right"/>
    <trip id="8" depart="24.00" from="bottomright_to_right" to="right_to_center"/>
    <trip id="9" depart="27.00" from="left_to_center" to="top_to_center"/>
    <trip id="10" depart="30.00" from="Left_to_topLeft" to="left_to_bottomleft"/>
    <trip id="11" depart="33.00" from="bottom_to_center" to="right_to_center"/>
    <trip id="12" depart="36.00" from="left_to_bottomleft" to="Left_to_topLeft"/>
    <trip id="13" depart="39.00" from="left_to_bottomleft" to="bottomLeft_to_left"/>
    <trip id="14" depart="42.00" from="left_to_center" to="left_to_bottomleft"/>
    <trip id="15" depart="45.00" from="right_to_topright" to="left_to_center"/>
    <trip id="16" depart="48.00" from="topLeft_to_left" to="top_to_topright"/>
    <trip id="17" depart="51.00" from="center_to_bottom" to="topright_to_right"/>
    <trip id="18" depart="54.00" from="Left_to_topLeft" to="topright_to_top"/>
    <trip id="19" depart="57.00" from="bottomright_to_right" to="left_to_center"/>
    <trip id="20" depart="60.00" from="bottomright_to_right" to="topright_to_right"/>
    <trip id="21" depart="63.00" from="topLeft_to_top" to="center_to_bottom"/>
    <trip id="22" depart="66.00" from="topLeft_to_top" to="top_to_topright"/>
    <trip id="23" depart="69.00" from="center_to_right" to="left_to_bottomleft"/>
    <trip id="24" depart="72.00" from="topright_to_top" to="topright_to_right"/>
    <trip id="25" depart="75.00" from="top_to_center" to="left_to_center"/>
    <trip id="26" depart="78.00" from="center_to_top" to="bottom_to_center"/>
    <trip id="27" depart="81.00" from="bottomLeft_to_left" to="bottom_to_bottomLeft"/>
    <trip id="28" depart="84.00" from="bottom_to_center" to="top_to_topright"/>
    <trip id="29" depart="87.00" from="topright_to_right" to="topLeft_to_left"/>
    <trip id="30" depart="90.00" from="top_to_topright" to="bottomright_to_bottom"/>
    <trip id="31" depart="93.00" from="topLeft_to_left" to="topLeft_to_left"/>
    <trip id="32" depart="96.00" from="right_to_topright" to="center_to_left"/>
    <trip id="33" depart="99.00" from="center_to_bottom" to="center_to_bottom"/>
    <trip id="34" depart="102.00" from="right_to_bottomright" to="top_to_topright"/>
    <trip id="35" depart="105.00" from="right_to_bottomright" to="right_to_center"/>
    <trip id="36" depart="108.00" from="Left_to_topLeft" to="top_to_topLeft"/>
    <trip id="37" depart="111.00" from="center_to_top" to="bottom_to_bottomRight"/>
    <trip id="38" depart="114.00" from="bottomleft_to_bottom" to="center_to_right"/>
    <trip id="39" depart="117.00" from="topright_to_top" to="bottomright_to_right"/>
    <trip id="40" depart="120.00" from="center_to_top" to="bottomLeft_to_left"/>
    <trip id="41" depart="123.00" from="bottomLeft_to_left" to="center_to_bottom"/>
    <trip id="42" depart="126.00" from="bottomleft_to_bottom" to="bottomright_to_bottom"/>
    <trip id="43" depart="129.00" from="right_to_bottomright" to="bottomleft_to_bottom"/>
    <trip id="44" depart="132.00" from="center_to_left" to="left_to_bottomleft"/>
    <trip id="45" depart="135.00" from="center_to_bottom" to="topLeft_to_top"/>
    <trip id="46" depart="138.00" from="bottom_to_bottomLeft" to="top_to_topLeft"/>
    <trip id="47" depart="141.00" from="bottom_to_bottomRight" to="bottomright_to_bottom"/>
    <trip id="48" depart="144.00" from="bottom_to_bottomRight" to="bottom_to_bottomRight"/>
    <trip id="49" depart="147.00" from="top_to_center" to="bottomright_to_bottom"/>
    <trip id="50" depart="150.00" from="right_to_center" to="bottom_to_bottomRight"/>
    <trip id="51" depart="153.00" from="topright_to_top" to="right_to_bottomright"/>
    <trip id="52" depart="156.00" from="bottom_to_bottomRight" to="bottom_to_center"/>
    <trip id="53" depart="159.00" from="left_to_center" to="Left_to_topLeft"/>
    <trip id="54" depart="162.00" from="bottomleft_to_bottom" to="top_to_center"/>
    <trip id="55" depart="165.00" from="topLeft_to_top" to="bottom_to_bottomRight"/>
    <trip id="56" depart="168.00" from="center_to_top" to="bottomright_to_bottom"/>
    <trip id="57" depart="171.00" from="top_to_topLeft" to="center_to_top"/>
    <trip id="58" depart="174.00" from="center_to_right" to="bottom_to_center"/>
    <trip id="59" depart="177.00" from="bottomLeft_to_left" to="top_to_center"/>
    <trip id="60" depart="180.00" from="bottom_to_bottomLeft" to="left_to_bottomleft"/>
    <trip id="61" depart="183.00" from="bottom_to_bottomRight" to="center_to_right"/>
    <trip id="62" depart="186.00" from="top_to_center" to="right_to_center"/>
    <trip id="63" depart="189.00" from="right_to_bottomright" to="top_to_topLeft"/>
    <trip id="64" depart="192.00" from="topLeft_to_left" to="topLeft_to_left"/>
    <trip id="65" depart="195.00" from="top_to_topLeft" to="topLeft_to_left"/>
    <trip id="66" depart="198.00" from="topright_to_right" to="center_to_right"/>
    <trip id="67" depart="201.00" from="top_to_center" to="left_to_bottomleft"/>
    <trip id="68" depart="204.00" from="right_to_bottomright" to="topright_to_top"/>
    <trip id="69" depart="207.00" from="bottomLeft_to_left" to="left_to_center"/>
    <trip id="70" depart="210.00" from="bottom_to_center" to="top_to_topLeft"/>
    <trip id="71" depart="213.00" from="bottomright_to_bottom" to="topLeft_to_top"/>
    <trip id="72" depart="216.00" from="right_to_center" to="bottom_to_center"/>
    <trip id="73" depart="219.00" from="center_to_bottom" to="bottom_to_bottomRight"/>
    <trip id="74" depart="222.00" from="right_to_bottomright" to="left_to_center"/>
    <trip id="75" depart="225.00" from="center_to_left" to="right_to_topright"/>
    <trip id="76" depart="228.00" from="bottom_to_bottomLeft" to="left_to_center"/>
    <trip id="77" depart="231.00" from="right_to_bottomright" to="topright_to_right"/>
    <trip id="78" depart="234.00" from="bottom_to_bottomRight" to="bottomleft_to_bottom"/>
    <trip id="79" depart="237.00" from="left_to_center" to="topLeft_to_top"/>
    <trip id="80" depart="240.00" from="bottomleft_to_bottom" to="bottomleft_to_bottom"/>
    <trip id="81" depart="243.00" from="left_to_bottomleft" to="bottomright_to_right"/>
    <trip id="82" depart="246.00" from="top_to_topright" to="bottom_to_bottomLeft"/>
    <trip id="83" depart="249.00" from="bottom_to_center" to="topright_to_top"/>
    <trip id="84" depart="252.00" from="bottomright_to_right" to="bottom_to_center"/>
    <trip id="85" depart="255.00" from="top_to_topLeft" to="bottom_to_bottomRight"/>
    <trip id="86" depart="258.00" from="left_to_center" to="Left_to_topLeft"/>
    <trip id="87" depart="261.00" from="right_to_bottomright" to="right_to_topright"/>
    <trip id="88" depart="264.00" from="bottomright_to_right" to="center_to_bottom"/>
    <trip id="89" depart="267.00" from="right_to_topright" to="Left_to_topLeft"/>
    <trip id="90" depart="270.00" from="topLeft_to_left" to="center_to_top"/>
    <trip id="91" depart="273.00" from="right_to_center" to="top_to_topright"/>
    <trip id="92" depart="276.00" from="center_to_top" to="topright_to_top"/>
    <trip id="93" depart="279.00" from="bottom_to_bottomRight" to="bottom_to_bottomLeft"/>
    <trip id="94" depart="282.00" from="right_to_bottomright" to="Left_to_topLeft"/>
    <trip id="95" depart="285.00" from="topLeft_to_top" to="bottom_to_bottomRight"/>
    <trip id="96" depart="288.00" from="topright_to_right" to="bottomleft_to_bottom"/>
    <trip id="97" depart="291.00" from="top_to_center" to="right_to_center"/>
    <trip id="98" depart="294.00" from="left_to_center" to="bottom_to_bottomLeft"/>
    <trip id="99" depart="297.00" from="bottomLeft_to_left" to="left_to_bottomleft"/>
    <trip id="100" depart="300.00" from="bottom_to_center" to="bottom_to_bottomLeft"/>
    <trip id="101" depart="303.00" from="top_to_topright" to="top_to_topLeft"/>
    <trip id="102" depart="306.00" from="bottomright_to_bottom" to="bottom_to_center"/>
    <trip id="103" depart="309.00" from="topright_to_right" to="center_to_bottom"/>
    <trip id="104" depart="312.00" from="top_to_center" to="topright_to_top"/>
    <trip id="105" depart="315.00" from="bottom_to_bottomLeft" to="right_to_center"/>
    <trip id="106" depart="318.00" from="top_to_topLeft" to="bottomright_to_right"/>
    <trip id="107" depart="321.00" from="topLeft_to_left" to="topright_to_top"/>
    <trip id="108" depart="324.00" from="center_to_top" to="right_to_bottomright"/>
    <trip id="109" depart="327.00" from="center_to_left" to="bottomright_to_bottom"/>
    <trip id="110" depart="330.00" from="left_to_bottomleft" to="bottom_to_center"/>
    <trip id="111" depart="333.00" from="top_to_topLeft" to="right_to_center"/>
    <trip id="112" depart="336.00" from="topright_to_top" to="topright_to_top"/>
    <trip id="113" depart="339.00" from="center_to_left" to="right_to_topright"/>
    <trip id="114" depart="342.00" from="top_to_topLeft" to="right_to_topright"/>
    <trip id="115" depart="345.00" from="topright_to_right" to="topLeft_to_top"/>
    <trip id="116" depart="348.00" from="bottomLeft_to_left" to="right_to_topright"/>
    <trip id="117" depart="351.00" from="topLeft_to_top" to="left_to_center"/>
    <trip id="118" depart="354.00" from="bottomright_to_right" to="bottom_to_center"/>
    <trip id="119" depart="357.00" from="top_to_topright" to="topLeft_to_top"/>
    <trip id="120" depart="360.00" from="left_to_center" to="bottomleft_to_bottom"/>
    <trip id="121" depart="363.00" from="right_to_center" to="top_to_topright"/>
    <trip id="122" depart="366.00" from="bottom_to_center" to="Left_to_topLeft"/>
    <trip id="123" depart="369.00" from="bottom_to_bottomLeft" to="center_to_bottom"/>
    <trip id="124" depart="372.00" from="topLeft_to_top" to="bottom_to_bottomRight"/>
    <trip id="125" depart="375.00" from="center_to_top" to="right_to_bottomright"/>
    <trip id="126" depart="378.00" from="bottomright_to_bottom" to="top_to_center"/>
    <trip id="127" depart="381.00" from="left_to_center" to="center_to_bottom"/>
    <trip id="128" depart="384.00" from="bottomright_to_right" to="right_to_topright"/>
    <trip id="129" depart="387.00" from="bottomright_to_right" to="Left_to_topLeft"/>
    <trip id="130" depart="390.00" from="bottomright_to_bottom" to="right_to_center"/>
    <trip id="131" depart="393.00" from="topright_to_top" to="bottomleft_to_bottom"/>
    <trip id="132" depart="396.00" from="center_to_top" to="right_to_center"/>
    <trip id="133" depart="399.00" from="bottomLeft_to_left" to="bottom_to_center"/>
    <trip id="134" depart="402.00" from="topLeft_to_left" to="bottomleft_to_bottom"/>
    <trip id="135" depart="405.00" from="center_to_bottom" to="right_to_topright"/>
    <trip id="136" depart="408.00" from="right_to_topright" to="topLeft_to_left"/>
    <trip id="137" depart="411.00" from="bottom_to_center" to="bottomleft_to_bottom"/>
    <trip id="138" depart="414.00" from="top_to_center" to="right_to_bottomright"/>
    <trip id="139" depart="417.00" from="right_to_center" to="bottom_to_bottomLeft"/>
    <trip id="140" depart="420.00" from="topLeft_to_left" to="bottomright_to_bottom"/>
    <trip id="141" depart="423.00" from="topLeft_to_left" to="bottom_to_bottomLeft"/>
    <trip id="142" depart="426.00" from="center_to_bottom" to="left_to_bottomleft"/>
    <trip id="143" depart="429.00" from="topright_to_right" to="center_to_top"/>
    <trip id="144" depart="432.00" from="top_to_center" to="topLeft_to_top"/>
    <trip id="145" depart="435.00" from="right_to_bottomright" to="right_to_topright"/>
    <trip id="146" depart="438.00" from="Left_to_topLeft" to="topright_to_top"/>
    <trip id="147" depart="441.00" from="left_to_center" to="bottomleft_to_bottom"/>
    <trip id="148" depart="444.00" from="top_to_topLeft" to="bottomleft_to_bottom"/>
    <trip id="149" depart="447.00" from="left_to_center" to="center_to_right"/>
    <trip id="150" depart="450.00" from="Left_to_topLeft" to="left_to_center"/>
    <trip id="151" depart="453.00" from="topright_to_right" to="left_to_bottomleft"/>
    <trip id="152" depart="456.00" from="right_to_topright" to="center_to_right"/>
    <trip id="153" depart="459.00" from="right_to_bottomright" to="left_to_center"/>
    <trip id="154" depart="462.00" from="bottom_to_bottomLeft" to="right_to_topright"/>
    <trip id="155" depart="465.00" from="center_to_top" to="bottomright_to_bottom"/>
    <trip id="156" depart="468.00" from="center_to_right" to="bottomright_to_right"/>
    <trip id="157" depart="471.00" from="right_to_topright" to="topright_to_right"/>
    <trip id="158" depart="474.00" from="bottomLeft_to_left" to="bottomleft_to_bottom"/>
    <trip id="159" depart="477.00" from="Left_to_topLeft" to="right_to_topright"/>
    <trip id="160" depart="480.00" from="left_to_bottomleft" to="center_to_left"/>
    <trip id="161" depart="483.00" from="bottomright_to_right" to="topLeft_to_top"/>
    <trip id="162" depart="486.00" from="bottom_to_bottomLeft" to="right_to_topright"/>
    <trip id="163" depart="489.00" from="bottom_to_bottomRight" to="bottomLeft_to_left"/>
    <trip id="164" depart="492.00" from="center_to_right" to="topLeft_to_top"/>
    <trip id="165" depart="495.00" from="bottomright_to_bottom" to="top_to_topright"/>
    <trip id="166" depart="498.00" from="center_to_bottom" to="bottom_to_bottomLeft"/>
    <trip id="167" depart="501.00" from="right_to_topright" to="top_to_center"/>
    <trip id="168" depart="504.00" from="center_to_right" to="bottom_to_bottomRight"/>
    <trip id="169" depart="507.00" from="bottom_to_bottomRight" to="right_to_center"/>
    <trip id="170" depart="510.00" from="right_to_center" to="bottomleft_to_bottom"/>
    <trip id="171" depart="513.00" from="topright_to_top" to="bottomleft_to_bottom"/>
    <trip id="172" depart="516.00" from="topLeft_to_left" to="bottom_to_bottomRight"/>
    <trip id="173" depart="519.00" from="topLeft_to_top" to="Left_to_topLeft"/>
    <trip id="174" depart="522.00" from="bottomleft_to_bottom" to="bottom_to_center"/>
    <trip id="175" depart="525.00" from="bottom_to_bottomRight" to="center_to_bottom"/>
    <trip id="176" depart="528.00" from="top_to_topright" to="left_to_bottomleft"/>
    <trip id="177" depart="531.00" from="center_to_top" to="top_to_topLeft"/>
    <trip id="178" depart="534.00" from="top_to_topright" to="topright_to_top"/>
    <trip id="179" depart="537.00" from="bottom_to_bottomRight" to="center_to_right"/>
    <trip id="180" depart="540.00" from="left_to_center" to="bottomright_to_right"/>
    <trip id="181" depart="543.00" from="Left_to_topLeft" to="bottomright_to_bottom"/>
    <trip id="182" depart="546.00" from="center_to_top" to="left_to_bottomleft"/>
    <trip id="183" depart="549.00" from="left_to_center" to="center_to_top"/>
    <trip id="184" depart="552.00" from="bottom_to_bottomLeft" to="Left_to_topLeft"/>
    <trip id="185" depart="555.00" from="left_to_bottomleft" to="center_to_top"/>
    <trip id="186" depart="558.00" from="center_to_left" to="bottomleft_to_bottom"/>
    <trip id="187" depart="561.00" from="bottomleft_to_bottom" to="topright_to_right"/>
    <trip id="188" depart="564.00" from="left_to_center" to="bottom_to_center"/>
    <trip id="189" depart="567.00" from="bottomright_to_bottom" to="bottomLeft_to_left"/>
    <trip id="190" depart="570.00" from="left_to_bottomleft" to="center_to_right"/>
    <trip id="191" depart="573.00" from="top_to_center" to="center_to_right"/>
    <trip id="192" depart="576.00" from="bottomright_to_right" to="center_to_bottom"/>
    <trip id="193" depart="579.00" from="bottomLeft_to_left" to="bottomLeft_to_left"/>
    <trip id="194" depart="582.00" from="top_to_topright" to="bottom_to_center"/>
    <trip id="195" depart="585.00" from="top_to_topLeft" to="right_to_topright"/>
    <trip id="196" depart="588.00" from="bottomright_to_bottom" to="bottom_to_center"/>
    <trip id="197" depart="591.00" from="topLeft_to_left" to="top_to_topright"/>
    <trip id="198" depart="594.00" from="center_to_right" to="topright_to_right"/>
    <trip id="199" depart="597.00" from="right_to_bottomright" to="bottom_to_center"/>
    <trip id="200" depart="600.00" from="bottomright_to_right" to="top_to_center"/>
    <trip id="201" depart="603.00" from="top_to_topright" to="center_to_top"/>
    <trip id="202" depart="606.00" from="left_to_bottomleft" to="bottomleft_to_bottom"/>
    <trip id="203" depart="609.00" from="top_to_topLeft" to="right_to_topright"/>
    <trip id="204" depart="612.00" from="left_to_center" to="right_to_topright"/>
    <trip id="205" depart="615.00" from="bottomLeft_to_left" to="left_to_center"/>
    <trip id="206" depart="618.00" from="top_to_topLeft" to="left_to_center"/>
    <trip id="207" depart="621.00" from="topright_to_right" to="topright_to_right"/>
    <trip id="208" depart="624.00" from="right_to_bottomright" to="topright_to_top"/>
    <trip id="209" depart="627.00" from="bottomleft_to_bottom" to="topLeft_to_top"/>
    <trip id="210" depart="630.00" from="top_to_topLeft" to="Left_to_topLeft"/>
    <trip id="211" depart="633.00" from="center_to_bottom" to="bottom_to_center"/>
    <trip id="212" depart="636.00" from="center_to_right" to="left_to_bottomleft"/>
    <trip id="213" depart="639.00" from="top_to_topLeft" to="bottomLeft_to_left"/>
    <trip id="214" depart="642.00" from="top_to_center" to="center_to_top"/>
    <trip id="215" depart="645.00" from="topLeft_to_left" to="left_to_bottomleft"/>
    <trip id="216" depart="648.00" from="right_to_topright" to="top_to_topLeft"/>
    <trip id="217" depart="651.00" from="center_to_top" to="left_to_bottomleft"/>
    <trip id="218" depart="654.00" from="center_to_bottom" to="top_to_topright"/>
    <trip id="219" depart="657.00" from="left_to_bottomleft" to="bottomLeft_to_left"/>
    <trip id="220" depart="660.00" from="center_to_left" to="Left_to_topLeft"/>
    <trip id="221" depart="663.00" from="topright_to_top" to="topright_to_top"/>
    <trip id="222" depart="666.00" from="bottomright_to_bottom" to="center_to_bottom"/>
    <trip id="223" depart="669.00" from="topright_to_top" to="bottomleft_to_bottom"/>
    <trip id="224" depart="672.00" from="top_to_topright" to="left_to_bottomleft"/>
    <trip id="225" depart="675.00" from="Left_to_topLeft" to="topLeft_to_top"/>
    <trip id="226" depart="678.00" from="bottom_to_bottomLeft" to="bottom_to_center"/>
    <trip id="227" depart="681.00" from="topright_to_right" to="Left_to_topLeft"/>
    <trip id="228" depart="684.00" from="right_to_topright" to="bottom_to_center"/>
    <trip id="229" depart="687.00" from="top_to_topright" to="topright_to_top"/>
    <trip id="230" depart="690.00" from="right_to_topright" to="bottom_to_center"/>
    <trip id="231" depart="693.00" from="top_to_topLeft" to="top_to_topright"/>
    <trip id="232" depart="696.00" from="center_to_right" to="top_to_topLeft"/>
    <trip id="233" depart="699.00" from="top_to_center" to="center_to_bottom"/>
    <trip id="234" depart="702.00" from="right_to_center" to="topLeft_to_top"/>
    <trip id="235" depart="705.00" from="top_to_center" to="topright_to_top"/>
    <trip id="236" depart="708.00" from="bottom_to_center" to="left_to_center"/>
    <trip id="237" depart="711.00" from="left_to_center" to="bottomLeft_to_left"/>
    <trip id="238" depart="714.00" from="bottomleft_to_bottom" to="bottomLeft_to_left"/>
    <trip id="239" depart="717.00" from="bottom_to_bottomLeft" to="bottomLeft_to_left"/>
    <trip id="240" depart="720.00" from="center_to_left" to="bottomright_to_bottom"/>
    <trip id="241" depart="723.00" from="right_to_center" to="top_to_center"/>
    <trip id="242" depart="726.00" from="topLeft_to_top" to="bottomright_to_bottom"/>
    <trip id="243" depart="729.00" from="bottom_to_bottomLeft" to="right_to_bottomright"/>
    <trip id="244" depart="732.00" from="left_to_bottomleft" to="center_to_bottom"/>
    <trip id="245" depart="735.00" from="center_to_left" to="bottom_to_center"/>
    <trip id="246" depart="738.00" from="right_to_topright" to="center_to_right"/>
    <trip id="247" depart="741.00" from="bottomright_to_right" to="topLeft_to_left"/>
    <trip id="248" depart="744.00" from="bottom_to_bottomRight" to="bottom_to_bottomRight"/>
    <trip id="249" depart="747.00" from="center_to_bottom" to="bottomright_to_bottom"/>
    <trip id="250" depart="750.00" from="left_to_center" to="bottomright_to_right"/>
    <trip id="251" depart="753.00" from="left_to_bottomleft" to="center_to_bottom"/>
    <trip id="252" depart="756.00" from="bottomleft_to_bottom" to="right_to_bottomright"/>
    <trip id="253" depart="759.00" from="left_to_center" to="left_to_bottomleft"/>
    <trip id="254" depart="762.00" from="left_to_center" to="bottomright_to_bottom"/>
    <trip id="255" depart="765.00" from="bottom_to_center" to="bottomLeft_to_left"/>
    <trip id="256" depart="768.00" from="topright_to_top" to="right_to_center"/>
    <trip id="257" depart="771.00" from="right_to_topright" to="center_to_right"/>
    <trip id="258" depart="774.00" from="center_to_top" to="top_to_topLeft"/>
    <trip id="259" depart="777.00" from="center_to_right" to="right_to_topright"/>
    <trip id="260" depart="780.00" from="right_to_topright" to="bottom_to_bottomRight"/>
    <trip id="261" depart="783.00" from="center_to_bottom" to="bottom_to_bottomLeft"/>
    <trip id="262" depart="786.00" from="left_to_center" to="left_to_center"/>
    <trip id="263" depart="789.00" from="bottomleft_to_bottom" to="center_to_bottom"/>
    <trip id="264" depart="792.00" from="right_to_topright" to="top_to_topright"/>
    <trip id="265" depart="795.00" from="topright_to_top" to="left_to_bottomleft"/>
    <trip id="266" depart="798.00" from="left_to_bottomleft" to="right_to_bottomright"/>
    <trip id="267" depart="801.00" from="bottomleft_to_bottom" to="topLeft_to_top"/>
    <trip id="268" depart="804.00" from="bottomleft_to_bottom" to="center_to_top"/>
    <trip id="269" depart="807.00" from="topLeft_to_top" to="left_to_center"/>
    <trip id="270" depart="810.00" from="center_to_bottom" to="center_to_left"/>
    <trip id="271" depart="813.00" from="bottomright_to_bottom" to="center_to_top"/>
    <trip id="272" depart="816.00" from="topLeft_to_top" to="right_to_center"/>
    <trip id="273" depart="819.00" from="bottomLeft_to_left" to="topright_to_right"/>
    <trip id="274" depart="822.00" from="bottom_to_bottomLeft" to="right_to_center"/>
    <trip id="275" depart="825.00" from="bottomright_to_right" to="center_to_top"/>
    <trip id="276" depart="828.00" from="topright_to_top" to="bottomright_to_right"/>
    <trip id="277" depart="831.00" from="right_to_center" to="bottom_to_bottomRight"/>
    <trip id="278" depart="834.00" from="right_to_bottomright" to="topLeft_to_left"/>
    <trip id="279" depart="837.00" from="right_to_topright" to="bottomright_to_right"/>
    <trip id="280" depart="840.00" from="left_to_bottomleft" to="bottomLeft_to_left"/>
    <trip id="281" depart="843.00" from="bottomright_to_right" to="bottomLeft_to_left"/>
    <trip id="282" depart="846.00" from="bottomright_to_right" to="center_to_right"/>
    <trip id="283" depart="849.00" from="bottomright_to_bottom" to="center_to_right"/>
    <trip id="284" depart="852.00" from="center_to_right" to="bottom_to_center"/>
    <trip id="285" depart="855.00" from="bottom_to_bottomRight" to="top_to_topright"/>
    <trip id="286" depart="858.00" from="bottom_to_bottomLeft" to="center_to_top"/>
    <trip id="287" depart="861.00" from="bottom_to_center" to="left_to_bottomleft"/>
    <trip id="288" depart="864.00" from="bottomright_to_right" to="topright_to_right"/>
    <trip id="289" depart="867.00" from="topright_to_top" to="top_to_center"/>
    <trip id="290" depart="870.00" from="left_to_bottomleft" to="center_to_right"/>
    <trip id="291" depart="873.00" from="center_to_bottom" to="Left_to_topLeft"/>
    <trip id="292" depart="876.00" from="bottomright_to_right" to="bottomLeft_to_left"/>
    <trip id="293" depart="879.00" from="bottom_to_center" to="right_to_bottomright"/>
    <trip id="294" depart="882.00" from="topright_to_right" to="bottomright_to_right"/>
    <trip id="295" depart="885.00" from="bottomLeft_to_left" to="bottomright_to_bottom"/>
    <trip id="296" depart="888.00" from="right_to_topright" to="center_to_left"/>
    <trip id="297" depart="891.00" from="bottom_to_bottomLeft" to="left_to_bottomleft"/>
    <trip id="298" depart="894.00" from="top_to_topLeft" to="top_to_topright"/>
    <trip id="299" depart="897.00" from="right_to_topright" to="top_to_topLeft"/>
    <trip id="300" depart="900.00" from="center_to_top" to="top_to_center"/>
    <trip id="301" depart="903.00" from="right_to_bottomright" to="top_to_center"/>
    <trip id="302" depart="906.00" from="topLeft_to_left" to="right_to_topright"/>
    <trip id="303" depart="909.00" from="topright_to_top" to="left_to_bottomleft"/>
    <trip id="304" depart="912.00" from="topLeft_to_top" to="right_to_topright"/>
    <trip id="305" depart="915.00" from="topLeft_to_top" to="topright_to_right"/>
    <trip id="306" depart="918.00" from="bottom_to_center" to="Left_to_topLeft"/>
    <trip id="307" depart="921.00" from="topLeft_to_top" to="right_to_center"/>
    <trip id="308" depart="924.00" from="bottomLeft_to_left" to="center_to_left"/>
    <trip id="309" depart="927.00" from="bottomleft_to_bottom" to="topLeft_to_left"/>
    <trip id="310" depart="930.00" from="right_to_bottomright" to="top_to_topLeft"/>
    <trip id="311" depart="933.00" from="top_to_topLeft" to="bottom_to_bottomLeft"/>
    <trip id="312" depart="936.00" from="top_to_topright" to="right_to_center"/>
    <trip id="313" depart="939.00" from="left_to_center" to="right_to_center"/>
    <trip id="314" depart="942.00" from="bottomright_to_bottom" to="bottom_to_center"/>
    <trip id="315" depart="945.00" from="topLeft_to_left" to="right_to_topright"/>
    <trip id="316" depart="948.00" from="right_to_center" to="center_to_right"/>
    <trip id="317" depart="951.00" from="right_to_bottomright" to="Left_to_topLeft"/>
    <trip id="318" depart="954.00" from="center_to_left" to="right_to_center"/>
    <trip id="319" depart="957.00" from="center_to_top" to="center_to_left"/>
    <trip id="320" depart="960.00" from="bottomleft_to_bottom" to="left_to_center"/>
    <trip id="321" depart="963.00" from="center_to_left" to="right_to_center"/>
    <trip id="322" depart="966.00" from="top_to_topLeft" to="topLeft_to_left"/>
    <trip id="323" depart="969.00" from="topLeft_to_left" to="center_to_top"/>
    <trip id="324" depart="972.00" from="right_to_center" to="top_to_center"/>
    <trip id="325" depart="975.00" from="bottom_to_bottomLeft" to="left_to_center"/>
    <trip id="326" depart="978.00" from="right_to_bottomright" to="topright_to_top"/>
    <trip id="327" depart="981.00" from="bottomright_to_right" to="bottom_to_center"/>
    <trip id="328" depart="984.00" from="bottomleft_to_bottom" to="bottom_to_center"/>
    <trip id="329" depart="987.00" from="topLeft_to_left" to="bottomright_to_bottom"/>
    <trip id="330" depart="990.00" from="center_to_left" to="left_to_center"/>
    <trip id="331" depart="993.00" from="bottomright_to_bottom" to="topLeft_to_left"/>
    <trip id="332" depart="996.00" from="center_to_left" to="right_to_topright"/>
    <trip id="333" depart="999.00" from="topright_to_top" to="center_to_right"/>
</routes>
