<?xml version="1.0" encoding="UTF-8"?>

<!-- generated on 2024-05-27 07:44:02 by Eclipse SUMO netedit Version 1.19.0
<configuration xmlns:xsi="http://www.w3.org/2001/XMLSchema-instance" xsi:noNamespaceSchemaLocation="http://sumo.dlr.de/xsd/neteditConfiguration.xsd">

    <input>
        <sumo-net-file value="/home/priyadarshini/handmadeosm/handmade.net.xml"/>
    </input>

    <output>
        <output-file value="/home/priyadarshini/handmadeosm/handmade.net.xml"/>
    </output>

    <processing>
        <geometry.min-radius.fix.railways value="false"/>
        <geometry.max-grade.fix value="false"/>
        <offset.disable-normalization value="true"/>
        <lefthand value="0"/>
    </processing>

    <junctions>
        <no-turnarounds value="true"/>
        <junctions.corner-detail value="5"/>
        <junctions.limit-turn-speed value="5.50"/>
        <rectangular-lane-cut value="0"/>
    </junctions>

    <pedestrian>
        <walkingareas value="0"/>
    </pedestrian>

</configuration>
-->

<net version="1.16" junctionCornerDetail="5" limitTurnSpeed="5.50" xmlns:xsi="http://www.w3.org/2001/XMLSchema-instance" xsi:noNamespaceSchemaLocation="http://sumo.dlr.de/xsd/net_file.xsd">

    <location netOffset="0.00,0.00" convBoundary="0.00,200.00,200.00,400.00" origBoundary="0.00,0.00,400.00,400.00" projParameter="!"/>

    <edge id=":bottom_traffic_light_0" function="internal">
        <lane id=":bottom_traffic_light_0_0" index="0" speed="3.65" length="4.67" shape="98.40,200.00 99.20,198.80 100.00,198.40 100.80,198.80 101.60,200.00"/>
    </edge>
    <edge id=":center_traffic_light_0" function="internal">
        <lane id=":center_traffic_light_0_0" index="0" speed="6.51" length="9.03" shape="98.40,307.20 98.05,304.75 97.00,303.00 95.25,301.95 92.80,301.60"/>
    </edge>
    <edge id=":center_traffic_light_1" function="internal">
        <lane id=":center_traffic_light_1_0" index="0" speed="13.89" length="14.40" shape="98.40,307.20 98.40,292.80"/>
    </edge>
    <edge id=":center_traffic_light_2" function="internal">
        <lane id=":center_traffic_light_2_0" index="0" speed="8.00" length="4.07" shape="98.40,307.20 98.95,303.35 99.04,303.20"/>
    </edge>
    <edge id=":center_traffic_light_3" function="internal">
        <lane id=":center_traffic_light_3_0" index="0" speed="3.65" length="1.44" shape="98.40,307.20 99.20,306.00"/>
    </edge>
    <edge id=":center_traffic_light_16" function="internal">
        <lane id=":center_traffic_light_16_0" index="0" speed="8.00" length="10.13" shape="99.04,303.20 100.60,300.60 103.35,298.95 107.20,298.40"/>
    </edge>
    <edge id=":center_traffic_light_17" function="internal">
        <lane id=":center_traffic_light_17_0" index="0" speed="3.65" length="3.23" shape="99.20,306.00 100.00,305.60 100.80,306.00 101.60,307.20"/>
    </edge>
    <edge id=":center_traffic_light_4" function="internal">
        <lane id=":center_traffic_light_4_0" index="0" speed="6.51" length="9.03" shape="107.20,301.60 104.75,301.95 103.00,303.00 101.95,304.75 101.60,307.20"/>
    </edge>
    <edge id=":center_traffic_light_5" function="internal">
        <lane id=":center_traffic_light_5_0" index="0" speed="13.89" length="14.40" shape="107.20,301.60 92.80,301.60"/>
    </edge>
    <edge id=":center_traffic_light_6" function="internal">
        <lane id=":center_traffic_light_6_0" index="0" speed="8.00" length="4.07" shape="107.20,301.60 103.35,301.05 103.20,300.96"/>
    </edge>
    <edge id=":center_traffic_light_7" function="internal">
        <lane id=":center_traffic_light_7_0" index="0" speed="3.65" length="1.44" shape="107.20,301.60 106.00,300.80"/>
    </edge>
    <edge id=":center_traffic_light_18" function="internal">
        <lane id=":center_traffic_light_18_0" index="0" speed="8.00" length="10.13" shape="103.20,300.96 100.60,299.40 98.95,296.65 98.40,292.80"/>
    </edge>
    <edge id=":center_traffic_light_19" function="internal">
        <lane id=":center_traffic_light_19_0" index="0" speed="3.65" length="3.23" shape="106.00,300.80 105.60,300.00 106.00,299.20 107.20,298.40"/>
    </edge>
    <edge id=":center_traffic_light_8" function="internal">
        <lane id=":center_traffic_light_8_0" index="0" speed="6.51" length="9.03" shape="101.60,292.80 101.95,295.25 103.00,297.00 104.75,298.05 107.20,298.40"/>
    </edge>
    <edge id=":center_traffic_light_9" function="internal">
        <lane id=":center_traffic_light_9_0" index="0" speed="13.89" length="14.40" shape="101.60,292.80 101.60,307.20"/>
    </edge>
    <edge id=":center_traffic_light_10" function="internal">
        <lane id=":center_traffic_light_10_0" index="0" speed="8.00" length="4.07" shape="101.60,292.80 101.05,296.65 100.96,296.80"/>
    </edge>
    <edge id=":center_traffic_light_11" function="internal">
        <lane id=":center_traffic_light_11_0" index="0" speed="3.65" length="1.44" shape="101.60,292.80 100.80,294.00"/>
    </edge>
    <edge id=":center_traffic_light_20" function="internal">
        <lane id=":center_traffic_light_20_0" index="0" speed="8.00" length="10.13" shape="100.96,296.80 99.40,299.40 96.65,301.05 92.80,301.60"/>
    </edge>
    <edge id=":center_traffic_light_21" function="internal">
        <lane id=":center_traffic_light_21_0" index="0" speed="3.65" length="3.23" shape="100.80,294.00 100.00,294.40 99.20,294.00 98.40,292.80"/>
    </edge>
    <edge id=":center_traffic_light_12" function="internal">
        <lane id=":center_traffic_light_12_0" index="0" speed="6.51" length="9.03" shape="92.80,298.40 95.25,298.05 97.00,297.00 98.05,295.25 98.40,292.80"/>
    </edge>
    <edge id=":center_traffic_light_13" function="internal">
        <lane id=":center_traffic_light_13_0" index="0" speed="13.89" length="14.40" shape="92.80,298.40 107.20,298.40"/>
    </edge>
    <edge id=":center_traffic_light_14" function="internal">
        <lane id=":center_traffic_light_14_0" index="0" speed="8.00" length="4.07" shape="92.80,298.40 96.65,298.95 96.80,299.04"/>
    </edge>
    <edge id=":center_traffic_light_15" function="internal">
        <lane id=":center_traffic_light_15_0" index="0" speed="3.65" length="1.44" shape="92.80,298.40 94.00,299.20"/>
    </edge>
    <edge id=":center_traffic_light_22" function="internal">
        <lane id=":center_traffic_light_22_0" index="0" speed="8.00" length="10.13" shape="96.80,299.04 99.40,300.60 101.05,303.35 101.60,307.20"/>
    </edge>
    <edge id=":center_traffic_light_23" function="internal">
        <lane id=":center_traffic_light_23_0" index="0" speed="3.65" length="3.23" shape="94.00,299.20 94.40,300.00 94.00,300.80 92.80,301.60"/>
    </edge>
    <edge id=":left_traffic_light_0" function="internal">
        <lane id=":left_traffic_light_0_0" index="0" speed="3.65" length="4.67" shape="-0.00,301.60 -1.20,300.80 -1.60,300.00 -1.20,299.20 -0.00,298.40"/>
    </edge>
    <edge id=":right_traffic_light_0" function="internal">
        <lane id=":right_traffic_light_0_0" index="0" speed="3.65" length="4.67" shape="200.00,298.40 201.20,299.20 201.60,300.00 201.20,300.80 200.00,301.60"/>
    </edge>
    <edge id=":top_traffic_light_0" function="internal">
        <lane id=":top_traffic_light_0_0" index="0" speed="3.65" length="4.67" shape="101.60,400.00 100.80,401.20 100.00,401.60 99.20,401.20 98.40,400.00"/>
    </edge>

    <edge id="bottom_to_center" from="bottom_traffic_light" to="center_traffic_light" priority="-1">
        <lane id="bottom_to_center_0" index="0" speed="13.89" length="92.80" shape="101.60,200.00 101.60,292.80"/>
    </edge>
    <edge id="center_to_bottom" from="center_traffic_light" to="bottom_traffic_light" priority="-1">
        <lane id="center_to_bottom_0" index="0" speed="13.89" length="92.80" shape="98.40,292.80 98.40,200.00"/>
    </edge>
    <edge id="center_to_left" from="center_traffic_light" to="left_traffic_light" priority="-1">
        <lane id="center_to_left_0" index="0" speed="13.89" length="92.80" shape="92.80,301.60 -0.00,301.60"/>
    </edge>
    <edge id="center_to_right" from="center_traffic_light" to="right_traffic_light" priority="-1">
        <lane id="center_to_right_0" index="0" speed="13.89" length="92.80" shape="107.20,298.40 200.00,298.40"/>
    </edge>
    <edge id="center_to_top" from="center_traffic_light" to="top_traffic_light" priority="-1">
        <lane id="center_to_top_0" index="0" speed="13.89" length="92.80" shape="101.60,307.20 101.60,400.00"/>
    </edge>
    <edge id="left_to_center" from="left_traffic_light" to="center_traffic_light" priority="-1">
        <lane id="left_to_center_0" index="0" speed="13.89" length="92.80" shape="-0.00,298.40 92.80,298.40"/>
    </edge>
    <edge id="right_to_center" from="right_traffic_light" to="center_traffic_light" priority="-1">
        <lane id="right_to_center_0" index="0" speed="13.89" length="92.80" shape="200.00,301.60 107.20,301.60"/>
    </edge>
    <edge id="top_to_center" from="top_traffic_light" to="center_traffic_light" priority="-1">
        <lane id="top_to_center_0" index="0" speed="13.89" length="92.80" shape="98.40,400.00 98.40,307.20"/>
    </edge>

    <tlLogic id="center_traffic_light" type="static" programID="0" offset="0">
        <phase duration="42" state="GGggrrrrGGggrrrr"/>
        <phase duration="3"  state="yyyyrrrryyyyrrrr"/>
        <phase duration="42" state="rrrrGGggrrrrGGgg"/>
        <phase duration="3"  state="rrrryyyyrrrryyyy"/>
    </tlLogic>

    <junction id="bottom_traffic_light" type="priority" x="100.00" y="200.00" incLanes="center_to_bottom_0" intLanes=":bottom_traffic_light_0_0" shape="100.00,200.00 96.80,200.00 100.00,200.00">
        <request index="0" response="0" foes="0" cont="0"/>
    </junction>
    <junction id="center_traffic_light" type="traffic_light" x="100.00" y="300.00" incLanes="top_to_center_0 right_to_center_0 bottom_to_center_0 left_to_center_0" intLanes=":center_traffic_light_0_0 :center_traffic_light_1_0 :center_traffic_light_16_0 :center_traffic_light_17_0 :center_traffic_light_4_0 :center_traffic_light_5_0 :center_traffic_light_18_0 :center_traffic_light_19_0 :center_traffic_light_8_0 :center_traffic_light_9_0 :center_traffic_light_20_0 :center_traffic_light_21_0 :center_traffic_light_12_0 :center_traffic_light_13_0 :center_traffic_light_22_0 :center_traffic_light_23_0" shape="96.80,307.20 103.20,307.20 103.64,304.98 104.20,304.20 104.98,303.64 105.98,303.31 107.20,303.20 107.20,296.80 104.98,296.36 104.20,295.80 103.64,295.02 103.31,294.02 103.20,292.80 96.80,292.80 96.36,295.02 95.80,295.80 95.02,296.36 94.02,296.69 92.80,296.80 92.80,303.20 95.02,303.64 95.80,304.20 96.36,304.98 96.69,305.98">
        <request index="0"  response="0000000000000000" foes="1000010000100000" cont="0"/>
        <request index="1"  response="0100000001000000" foes="0111110001100000" cont="0"/>
        <request index="2"  response="0100001101000000" foes="0110011111100000" cont="1"/>
        <request index="3"  response="0100001000010000" foes="0100001000010000" cont="1"/>
        <request index="4"  response="0000001000000000" foes="0100001000001000" cont="0"/>
        <request index="5"  response="0000011000000111" foes="1100011000000111" cont="0"/>
        <request index="6"  response="0011011000000110" foes="0111111000000110" cont="1"/>
        <request index="7"  response="0010000100000100" foes="0010000100000100" cont="1"/>
        <request index="8"  response="0000000000000000" foes="0010000010000100" cont="0"/>
        <request index="9"  response="0100000001000000" foes="0110000001111100" cont="0"/>
        <request index="10" response="0100000001000111" foes="1110000001100111" cont="1"/>
        <request index="11" response="0001000001000010" foes="0001000001000010" cont="1"/>
        <request index="12" response="0000000000000010" foes="0000100001000010" cont="0"/>
        <request index="13" response="0000011100000110" foes="0000011111000110" cont="0"/>
        <request index="14" response="0000011001110110" foes="0000011001111110" cont="1"/>
        <request index="15" response="0000010000100001" foes="0000010000100001" cont="1"/>
    </junction>
    <junction id="left_traffic_light" type="priority" x="0.00" y="300.00" incLanes="center_to_left_0" intLanes=":left_traffic_light_0_0" shape="-0.00,300.00 -0.00,303.20 -0.00,300.00">
        <request index="0" response="0" foes="0" cont="0"/>
    </junction>
    <junction id="right_traffic_light" type="priority" x="200.00" y="300.00" incLanes="center_to_right_0" intLanes=":right_traffic_light_0_0" shape="200.00,300.00 200.00,296.80 200.00,300.00">
        <request index="0" response="0" foes="0" cont="0"/>
    </junction>
    <junction id="top_traffic_light" type="priority" x="100.00" y="400.00" incLanes="center_to_top_0" intLanes=":top_traffic_light_0_0" shape="100.00,400.00 103.20,400.00 100.00,400.00">
        <request index="0" response="0" foes="0" cont="0"/>
    </junction>

    <junction id=":center_traffic_light_16_0" type="internal" x="99.04" y="303.20" incLanes=":center_traffic_light_2_0 bottom_to_center_0" intLanes=":center_traffic_light_5_0 :center_traffic_light_6_0 :center_traffic_light_7_0 :center_traffic_light_8_0 :center_traffic_light_9_0 :center_traffic_light_13_0 :center_traffic_light_14_0"/>
    <junction id=":center_traffic_light_17_0" type="internal" x="99.20" y="306.00" incLanes=":center_traffic_light_3_0 bottom_to_center_0 left_to_center_0 right_to_center_0" intLanes=":center_traffic_light_4_0 :center_traffic_light_9_0 :center_traffic_light_14_0"/>
    <junction id=":center_traffic_light_18_0" type="internal" x="103.20" y="300.96" incLanes=":center_traffic_light_6_0 left_to_center_0" intLanes=":center_traffic_light_1_0 :center_traffic_light_2_0 :center_traffic_light_9_0 :center_traffic_light_10_0 :center_traffic_light_11_0 :center_traffic_light_12_0 :center_traffic_light_13_0"/>
    <junction id=":center_traffic_light_19_0" type="internal" x="106.00" y="300.80" incLanes=":center_traffic_light_7_0 bottom_to_center_0 left_to_center_0 top_to_center_0" intLanes=":center_traffic_light_2_0 :center_traffic_light_8_0 :center_traffic_light_13_0"/>
    <junction id=":center_traffic_light_20_0" type="internal" x="100.96" y="296.80" incLanes=":center_traffic_light_10_0 top_to_center_0" intLanes=":center_traffic_light_0_0 :center_traffic_light_1_0 :center_traffic_light_5_0 :center_traffic_light_6_0 :center_traffic_light_13_0 :center_traffic_light_14_0 :center_traffic_light_15_0"/>
    <junction id=":center_traffic_light_21_0" type="internal" x="100.80" y="294.00" incLanes=":center_traffic_light_11_0 left_to_center_0 right_to_center_0 top_to_center_0" intLanes=":center_traffic_light_1_0 :center_traffic_light_6_0 :center_traffic_light_12_0"/>
    <junction id=":center_traffic_light_22_0" type="internal" x="96.80" y="299.04" incLanes=":center_traffic_light_14_0 right_to_center_0" intLanes=":center_traffic_light_1_0 :center_traffic_light_2_0 :center_traffic_light_3_0 :center_traffic_light_4_0 :center_traffic_light_5_0 :center_traffic_light_9_0 :center_traffic_light_10_0"/>
    <junction id=":center_traffic_light_23_0" type="internal" x="94.00" y="299.20" incLanes=":center_traffic_light_15_0 bottom_to_center_0 right_to_center_0 top_to_center_0" intLanes=":center_traffic_light_0_0 :center_traffic_light_5_0 :center_traffic_light_10_0"/>

    <connection from="bottom_to_center" to="center_to_right" fromLane="0" toLane="0" via=":center_traffic_light_8_0" tl="center_traffic_light" linkIndex="8" dir="r" state="O"/>
    <connection from="bottom_to_center" to="center_to_top" fromLane="0" toLane="0" via=":center_traffic_light_9_0" tl="center_traffic_light" linkIndex="9" dir="s" state="O"/>
    <connection from="bottom_to_center" to="center_to_left" fromLane="0" toLane="0" via=":center_traffic_light_10_0" tl="center_traffic_light" linkIndex="10" dir="l" state="o"/>
    <connection from="bottom_to_center" to="center_to_bottom" fromLane="0" toLane="0" via=":center_traffic_light_11_0" tl="center_traffic_light" linkIndex="11" dir="t" state="o"/>
    <connection from="center_to_bottom" to="bottom_to_center" fromLane="0" toLane="0" via=":bottom_traffic_light_0_0" dir="t" state="M"/>
    <connection from="center_to_left" to="left_to_center" fromLane="0" toLane="0" via=":left_traffic_light_0_0" dir="t" state="M"/>
    <connection from="center_to_right" to="right_to_center" fromLane="0" toLane="0" via=":right_traffic_light_0_0" dir="t" state="M"/>
    <connection from="center_to_top" to="top_to_center" fromLane="0" toLane="0" via=":top_traffic_light_0_0" dir="t" state="M"/>
    <connection from="left_to_center" to="center_to_bottom" fromLane="0" toLane="0" via=":center_traffic_light_12_0" tl="center_traffic_light" linkIndex="12" dir="r" state="o"/>
    <connection from="left_to_center" to="center_to_right" fromLane="0" toLane="0" via=":center_traffic_light_13_0" tl="center_traffic_light" linkIndex="13" dir="s" state="o"/>
    <connection from="left_to_center" to="center_to_top" fromLane="0" toLane="0" via=":center_traffic_light_14_0" tl="center_traffic_light" linkIndex="14" dir="l" state="o"/>
    <connection from="left_to_center" to="center_to_left" fromLane="0" toLane="0" via=":center_traffic_light_15_0" tl="center_traffic_light" linkIndex="15" dir="t" state="o"/>
    <connection from="right_to_center" to="center_to_top" fromLane="0" toLane="0" via=":center_traffic_light_4_0" tl="center_traffic_light" linkIndex="4" dir="r" state="o"/>
    <connection from="right_to_center" to="center_to_left" fromLane="0" toLane="0" via=":center_traffic_light_5_0" tl="center_traffic_light" linkIndex="5" dir="s" state="o"/>
    <connection from="right_to_center" to="center_to_bottom" fromLane="0" toLane="0" via=":center_traffic_light_6_0" tl="center_traffic_light" linkIndex="6" dir="l" state="o"/>
    <connection from="right_to_center" to="center_to_right" fromLane="0" toLane="0" via=":center_traffic_light_7_0" tl="center_traffic_light" linkIndex="7" dir="t" state="o"/>
    <connection from="top_to_center" to="center_to_left" fromLane="0" toLane="0" via=":center_traffic_light_0_0" tl="center_traffic_light" linkIndex="0" dir="r" state="O"/>
    <connection from="top_to_center" to="center_to_bottom" fromLane="0" toLane="0" via=":center_traffic_light_1_0" tl="center_traffic_light" linkIndex="1" dir="s" state="O"/>
    <connection from="top_to_center" to="center_to_right" fromLane="0" toLane="0" via=":center_traffic_light_2_0" tl="center_traffic_light" linkIndex="2" dir="l" state="o"/>
    <connection from="top_to_center" to="center_to_top" fromLane="0" toLane="0" via=":center_traffic_light_3_0" tl="center_traffic_light" linkIndex="3" dir="t" state="o"/>

    <connection from=":bottom_traffic_light_0" to="bottom_to_center" fromLane="0" toLane="0" dir="t" state="M"/>
    <connection from=":center_traffic_light_0" to="center_to_left" fromLane="0" toLane="0" dir="r" state="M"/>
    <connection from=":center_traffic_light_1" to="center_to_bottom" fromLane="0" toLane="0" dir="s" state="M"/>
    <connection from=":center_traffic_light_2" to="center_to_right" fromLane="0" toLane="0" via=":center_traffic_light_16_0" dir="l" state="m"/>
    <connection from=":center_traffic_light_16" to="center_to_right" fromLane="0" toLane="0" dir="l" state="M"/>
    <connection from=":center_traffic_light_3" to="center_to_top" fromLane="0" toLane="0" via=":center_traffic_light_17_0" dir="t" state="m"/>
    <connection from=":center_traffic_light_17" to="center_to_top" fromLane="0" toLane="0" dir="t" state="M"/>
    <connection from=":center_traffic_light_4" to="center_to_top" fromLane="0" toLane="0" dir="r" state="M"/>
    <connection from=":center_traffic_light_5" to="center_to_left" fromLane="0" toLane="0" dir="s" state="M"/>
    <connection from=":center_traffic_light_6" to="center_to_bottom" fromLane="0" toLane="0" via=":center_traffic_light_18_0" dir="l" state="m"/>
    <connection from=":center_traffic_light_18" to="center_to_bottom" fromLane="0" toLane="0" dir="l" state="M"/>
    <connection from=":center_traffic_light_7" to="center_to_right" fromLane="0" toLane="0" via=":center_traffic_light_19_0" dir="t" state="m"/>
    <connection from=":center_traffic_light_19" to="center_to_right" fromLane="0" toLane="0" dir="t" state="M"/>
    <connection from=":center_traffic_light_8" to="center_to_right" fromLane="0" toLane="0" dir="r" state="M"/>
    <connection from=":center_traffic_light_9" to="center_to_top" fromLane="0" toLane="0" dir="s" state="M"/>
    <connection from=":center_traffic_light_10" to="center_to_left" fromLane="0" toLane="0" via=":center_traffic_light_20_0" dir="l" state="m"/>
    <connection from=":center_traffic_light_20" to="center_to_left" fromLane="0" toLane="0" dir="l" state="M"/>
    <connection from=":center_traffic_light_11" to="center_to_bottom" fromLane="0" toLane="0" via=":center_traffic_light_21_0" dir="t" state="m"/>
    <connection from=":center_traffic_light_21" to="center_to_bottom" fromLane="0" toLane="0" dir="t" state="M"/>
    <connection from=":center_traffic_light_12" to="center_to_bottom" fromLane="0" toLane="0" dir="r" state="M"/>
    <connection from=":center_traffic_light_13" to="center_to_right" fromLane="0" toLane="0" dir="s" state="M"/>
    <connection from=":center_traffic_light_14" to="center_to_top" fromLane="0" toLane="0" via=":center_traffic_light_22_0" dir="l" state="m"/>
    <connection from=":center_traffic_light_22" to="center_to_top" fromLane="0" toLane="0" dir="l" state="M"/>
    <connection from=":center_traffic_light_15" to="center_to_left" fromLane="0" toLane="0" via=":center_traffic_light_23_0" dir="t" state="m"/>
    <connection from=":center_traffic_light_23" to="center_to_left" fromLane="0" toLane="0" dir="t" state="M"/>
    <connection from=":left_traffic_light_0" to="left_to_center" fromLane="0" toLane="0" dir="t" state="M"/>
    <connection from=":right_traffic_light_0" to="right_to_center" fromLane="0" toLane="0" dir="t" state="M"/>
    <connection from=":top_traffic_light_0" to="top_to_center" fromLane="0" toLane="0" dir="t" state="M"/>

</net>
