<?xml version="1.0" encoding="iso-8859-1"?>

<configuration>
<input>
  <net-file value="handmade.net.xml"/>
  <route-files value="handmade.rou.xml"/>
</input>

<time>
  <begin value="0" />
  <end value="1000" />
</time>

</configuration>
